<?xml version="1.0" encoding="UTF-8"?>

<!-- generated on 2022-03-23 10:12:45 by Eclipse SUMO netedit Version 1.12.0
<configuration xmlns:xsi="http://www.w3.org/2001/XMLSchema-instance" xsi:noNamespaceSchemaLocation="http://sumo.dlr.de/xsd/netconvertConfiguration.xsd">

    <input>
        <sumo-net-file value="/Users/edwardjinks/Google%20Drive/Uni/3rd%20Year/Dissertation/SUMO-RL/net.net.xml"/>
    </input>

    <output>
        <output-file value="/Users/edwardjinks/Google%20Drive/Uni/3rd%20Year/Dissertation/SUMO-RL/net.net.xml"/>
    </output>

    <processing>
        <geometry.min-radius.fix.railways value="false"/>
        <geometry.max-grade.fix value="false"/>
        <offset.disable-normalization value="true"/>
        <lefthand value="true"/>
    </processing>

    <junctions>
        <no-turnarounds value="true"/>
        <junctions.corner-detail value="5"/>
        <junctions.limit-turn-speed value="5.5"/>
        <rectangular-lane-cut value="false"/>
        <check-lane-foes.all value="true"/>
    </junctions>

    <pedestrian>
        <walkingareas value="false"/>
    </pedestrian>

    <report>
        <aggregate-warnings value="5"/>
    </report>

</configuration>
-->

<net version="1.9" junctionCornerDetail="5" lefthand="true" limitTurnSpeed="5.50" checkLaneFoesAll="1" xmlns:xsi="http://www.w3.org/2001/XMLSchema-instance" xsi:noNamespaceSchemaLocation="http://sumo.dlr.de/xsd/net_file.xsd">

    <location netOffset="0.00,0.00" convBoundary="0.00,0.00,200.00,200.00" origBoundary="0.00,0.00,200.00,200.00" projParameter="!"/>

    <edge id=":0_0" function="internal">
        <lane id=":0_0_0" index="0" speed="6.51" length="9.03" shape="98.40,92.80 98.05,95.25 97.00,97.00 95.25,98.05 92.80,98.40"/>
    </edge>
    <edge id=":0_1" function="internal">
        <lane id=":0_1_0" index="0" speed="13.89" length="14.40" shape="98.40,92.80 98.40,107.20"/>
    </edge>
    <edge id=":0_2" function="internal">
        <lane id=":0_2_0" index="0" speed="8.00" length="4.07" shape="98.40,92.80 98.95,96.65 99.04,96.80"/>
    </edge>
    <edge id=":0_12" function="internal">
        <lane id=":0_12_0" index="0" speed="8.00" length="10.13" shape="99.04,96.80 100.60,99.40 103.35,101.05 107.20,101.60"/>
    </edge>
    <edge id=":0_3" function="internal">
        <lane id=":0_3_0" index="0" speed="6.51" length="9.03" shape="107.20,98.40 104.75,98.05 103.00,97.00 101.95,95.25 101.60,92.80"/>
    </edge>
    <edge id=":0_4" function="internal">
        <lane id=":0_4_0" index="0" speed="13.89" length="14.40" shape="107.20,98.40 92.80,98.40"/>
    </edge>
    <edge id=":0_5" function="internal">
        <lane id=":0_5_0" index="0" speed="8.00" length="14.19" shape="107.20,98.40 103.35,98.95 100.60,100.60 98.95,103.35 98.40,107.20"/>
    </edge>
    <edge id=":0_6" function="internal">
        <lane id=":0_6_0" index="0" speed="6.51" length="9.03" shape="101.60,107.20 101.95,104.75 103.00,103.00 104.75,101.95 107.20,101.60"/>
    </edge>
    <edge id=":0_7" function="internal">
        <lane id=":0_7_0" index="0" speed="13.89" length="14.40" shape="101.60,107.20 101.60,92.80"/>
    </edge>
    <edge id=":0_8" function="internal">
        <lane id=":0_8_0" index="0" speed="8.00" length="4.07" shape="101.60,107.20 101.05,103.35 100.96,103.20"/>
    </edge>
    <edge id=":0_13" function="internal">
        <lane id=":0_13_0" index="0" speed="8.00" length="10.13" shape="100.96,103.20 99.40,100.60 96.65,98.95 92.80,98.40"/>
    </edge>
    <edge id=":0_9" function="internal">
        <lane id=":0_9_0" index="0" speed="6.51" length="9.03" shape="92.80,101.60 95.25,101.95 97.00,103.00 98.05,104.75 98.40,107.20"/>
    </edge>
    <edge id=":0_10" function="internal">
        <lane id=":0_10_0" index="0" speed="13.89" length="14.40" shape="92.80,101.60 107.20,101.60"/>
    </edge>
    <edge id=":0_11" function="internal">
        <lane id=":0_11_0" index="0" speed="8.00" length="14.19" shape="92.80,101.60 96.65,101.05 99.40,99.40 101.05,96.65 101.60,92.80"/>
    </edge>

    <edge id="0" from="0" to="1" priority="-1">
        <lane id="0_0" index="0" speed="13.89" length="92.80" shape="101.60,92.80 101.60,0.00"/>
    </edge>
    <edge id="1" from="0" to="2" priority="-1">
        <lane id="1_0" index="0" speed="13.89" length="92.80" shape="92.80,98.40 0.00,98.40"/>
    </edge>
    <edge id="2" from="0" to="3" priority="-1">
        <lane id="2_0" index="0" speed="13.89" length="92.80" shape="107.20,101.60 200.00,101.60"/>
    </edge>
    <edge id="3" from="0" to="4" priority="-1">
        <lane id="3_0" index="0" speed="13.89" length="92.80" shape="98.40,107.20 98.40,200.00"/>
    </edge>
    <edge id="4" from="1" to="0" priority="-1">
        <lane id="4_0" index="0" speed="13.89" length="92.80" shape="98.40,0.00 98.40,92.80"/>
    </edge>
    <edge id="5" from="2" to="0" priority="-1">
        <lane id="5_0" index="0" speed="13.89" length="92.80" shape="0.00,101.60 92.80,101.60"/>
    </edge>
    <edge id="6" from="3" to="0" priority="-1">
        <lane id="6_0" index="0" speed="13.89" length="92.80" shape="200.00,98.40 107.20,98.40"/>
    </edge>
    <edge id="7" from="4" to="0" priority="-1">
        <lane id="7_0" index="0" speed="13.89" length="92.80" shape="101.60,200.00 101.60,107.20"/>
    </edge>

    <junction id="0" type="priority" x="100.00" y="100.00" incLanes="4_0 6_0 7_0 5_0" intLanes=":0_0_0 :0_1_0 :0_12_0 :0_3_0 :0_4_0 :0_5_0 :0_6_0 :0_7_0 :0_13_0 :0_9_0 :0_10_0 :0_11_0" shape="96.80,92.80 103.20,92.80 103.64,95.02 104.20,95.80 104.98,96.36 105.98,96.69 107.20,96.80 107.20,103.20 104.98,103.64 104.20,104.20 103.64,104.98 103.31,105.98 103.20,107.20 96.80,107.20 96.36,104.98 95.80,104.20 95.02,103.64 94.02,103.31 92.80,103.20 92.80,96.80 95.02,96.36 95.80,95.80 96.36,95.02 96.69,94.02">
        <request index="0"  response="000000000000" foes="000100010000" cont="0"/>
        <request index="1"  response="000000000000" foes="111100110000" cont="0"/>
        <request index="2"  response="000111000000" foes="110111110000" cont="1"/>
        <request index="3"  response="000010000000" foes="100010000000" cont="0"/>
        <request index="4"  response="000110000111" foes="100110000111" cont="0"/>
        <request index="5"  response="011110000110" foes="111110000110" cont="0"/>
        <request index="6"  response="000000000000" foes="010000000100" cont="0"/>
        <request index="7"  response="000000000000" foes="110000111100" cont="0"/>
        <request index="8"  response="000000000011" foes="110000110111" cont="1"/>
        <request index="9"  response="000000000010" foes="000000100010" cont="0"/>
        <request index="10" response="000111000110" foes="000111100110" cont="0"/>
        <request index="11" response="000110111110" foes="000110111110" cont="0"/>
    </junction>
    <junction id="1" type="dead_end" x="100.00" y="0.00" incLanes="0_0" intLanes="" shape="100.00,-0.00 103.20,-0.00 100.00,-0.00" fringe="outer"/>
    <junction id="2" type="dead_end" x="0.00" y="100.00" incLanes="1_0" intLanes="" shape="0.00,100.00 0.00,96.80 0.00,100.00" fringe="outer"/>
    <junction id="3" type="dead_end" x="200.00" y="100.00" incLanes="2_0" intLanes="" shape="200.00,100.00 200.00,103.20 200.00,100.00" fringe="outer"/>
    <junction id="4" type="dead_end" x="100.00" y="200.00" incLanes="3_0" intLanes="" shape="100.00,200.00 96.80,200.00 100.00,200.00" fringe="outer"/>

    <junction id=":0_12_0" type="internal" x="99.04" y="96.80" incLanes=":0_2_0 7_0" intLanes=":0_4_0 :0_5_0 :0_6_0 :0_7_0 :0_10_0 :0_11_0"/>
    <junction id=":0_13_0" type="internal" x="100.96" y="103.20" incLanes=":0_8_0 4_0" intLanes=":0_0_0 :0_1_0 :0_4_0 :0_5_0 :0_10_0 :0_11_0"/>

    <connection from="4" to="1" fromLane="0" toLane="0" via=":0_0_0" dir="l" state="M"/>
    <connection from="4" to="3" fromLane="0" toLane="0" via=":0_1_0" dir="s" state="M"/>
    <connection from="4" to="2" fromLane="0" toLane="0" via=":0_2_0" dir="r" state="m"/>
    <connection from="5" to="3" fromLane="0" toLane="0" via=":0_9_0" dir="l" state="m"/>
    <connection from="5" to="2" fromLane="0" toLane="0" via=":0_10_0" dir="s" state="m"/>
    <connection from="5" to="0" fromLane="0" toLane="0" via=":0_11_0" dir="r" state="m"/>
    <connection from="6" to="0" fromLane="0" toLane="0" via=":0_3_0" dir="l" state="m"/>
    <connection from="6" to="1" fromLane="0" toLane="0" via=":0_4_0" dir="s" state="m"/>
    <connection from="6" to="3" fromLane="0" toLane="0" via=":0_5_0" dir="r" state="m"/>
    <connection from="7" to="2" fromLane="0" toLane="0" via=":0_6_0" dir="l" state="M"/>
    <connection from="7" to="0" fromLane="0" toLane="0" via=":0_7_0" dir="s" state="M"/>
    <connection from="7" to="1" fromLane="0" toLane="0" via=":0_8_0" dir="r" state="m"/>

    <connection from=":0_0" to="1" fromLane="0" toLane="0" dir="l" state="M"/>
    <connection from=":0_1" to="3" fromLane="0" toLane="0" dir="s" state="M"/>
    <connection from=":0_2" to="2" fromLane="0" toLane="0" via=":0_12_0" dir="r" state="m"/>
    <connection from=":0_12" to="2" fromLane="0" toLane="0" dir="r" state="M"/>
    <connection from=":0_3" to="0" fromLane="0" toLane="0" dir="l" state="M"/>
    <connection from=":0_4" to="1" fromLane="0" toLane="0" dir="s" state="M"/>
    <connection from=":0_5" to="3" fromLane="0" toLane="0" dir="r" state="M"/>
    <connection from=":0_6" to="2" fromLane="0" toLane="0" dir="l" state="M"/>
    <connection from=":0_7" to="0" fromLane="0" toLane="0" dir="s" state="M"/>
    <connection from=":0_8" to="1" fromLane="0" toLane="0" via=":0_13_0" dir="r" state="m"/>
    <connection from=":0_13" to="1" fromLane="0" toLane="0" dir="r" state="M"/>
    <connection from=":0_9" to="3" fromLane="0" toLane="0" dir="l" state="M"/>
    <connection from=":0_10" to="2" fromLane="0" toLane="0" dir="s" state="M"/>
    <connection from=":0_11" to="0" fromLane="0" toLane="0" dir="r" state="M"/>

</net>
